
---------- Begin Simulation Statistics ----------
simSeconds                                   0.131582                       # Number of seconds simulated (Second)
simTicks                                 131582376243                       # Number of ticks simulated (Tick)
finalTick                                131582376243                       # Number of ticks from beginning of simulation (restored from checkpoints and never reset) (Tick)
simFreq                                  1000000000000                       # The number of ticks per simulated second ((Tick/Second))
hostSeconds                                     65.50                       # Real time elapsed on the host (Second)
hostTickRate                               2008913530                       # The number of ticks simulated per host second (ticks/s) ((Tick/Second))
hostMemory                                    2231528                       # Number of bytes of host memory used (Byte)
simInsts                                     78206972                       # Number of instructions simulated (Count)
simOps                                      109514991                       # Number of ops (including micro ops) simulated (Count)
hostInstRate                                  1194011                       # Simulator instruction rate (inst/s) ((Count/Second))
hostOpRate                                    1672001                       # Simulator op (including micro ops) rate (op/s) ((Count/Second))
system.apicbridge.power_state.pwrStateResidencyTicks::UNDEFINED 131582376243                       # Cumulative time (in ticks) in various power states (Tick)
system.bridge.power_state.pwrStateResidencyTicks::UNDEFINED 131582376243                       # Cumulative time (in ticks) in various power states (Tick)
system.clk_domain.clock                          1000                       # Clock period in ticks (Tick)
system.cpu.numCycles                        395142271                       # Number of cpu cycles simulated (Cycle)
system.cpu.numWorkItemsStarted                      0                       # Number of work items this cpu started (Count)
system.cpu.numWorkItemsCompleted                    0                       # Number of work items this cpu completed (Count)
system.cpu.dcache.demandHits::cpu.data       48129058                       # number of demand (read+write) hits (Count)
system.cpu.dcache.demandHits::total          48129058                       # number of demand (read+write) hits (Count)
system.cpu.dcache.overallHits::cpu.data      48129058                       # number of overall hits (Count)
system.cpu.dcache.overallHits::total         48129058                       # number of overall hits (Count)
system.cpu.dcache.demandMisses::cpu.data       124114                       # number of demand (read+write) misses (Count)
system.cpu.dcache.demandMisses::total          124114                       # number of demand (read+write) misses (Count)
system.cpu.dcache.overallMisses::cpu.data       124114                       # number of overall misses (Count)
system.cpu.dcache.overallMisses::total         124114                       # number of overall misses (Count)
system.cpu.dcache.demandMissLatency::cpu.data   8442389160                       # number of demand (read+write) miss ticks (Tick)
system.cpu.dcache.demandMissLatency::total   8442389160                       # number of demand (read+write) miss ticks (Tick)
system.cpu.dcache.overallMissLatency::cpu.data   8442389160                       # number of overall miss ticks (Tick)
system.cpu.dcache.overallMissLatency::total   8442389160                       # number of overall miss ticks (Tick)
system.cpu.dcache.demandAccesses::cpu.data     48253172                       # number of demand (read+write) accesses (Count)
system.cpu.dcache.demandAccesses::total      48253172                       # number of demand (read+write) accesses (Count)
system.cpu.dcache.overallAccesses::cpu.data     48253172                       # number of overall (read+write) accesses (Count)
system.cpu.dcache.overallAccesses::total     48253172                       # number of overall (read+write) accesses (Count)
system.cpu.dcache.demandMissRate::cpu.data     0.002572                       # miss rate for demand accesses (Ratio)
system.cpu.dcache.demandMissRate::total      0.002572                       # miss rate for demand accesses (Ratio)
system.cpu.dcache.overallMissRate::cpu.data     0.002572                       # miss rate for overall accesses (Ratio)
system.cpu.dcache.overallMissRate::total     0.002572                       # miss rate for overall accesses (Ratio)
system.cpu.dcache.demandAvgMissLatency::cpu.data 68021.247885                       # average overall miss latency ((Cycle/Count))
system.cpu.dcache.demandAvgMissLatency::total 68021.247885                       # average overall miss latency ((Cycle/Count))
system.cpu.dcache.overallAvgMissLatency::cpu.data 68021.247885                       # average overall miss latency ((Cycle/Count))
system.cpu.dcache.overallAvgMissLatency::total 68021.247885                       # average overall miss latency ((Cycle/Count))
system.cpu.dcache.blockedCycles::no_mshrs            0                       # number of cycles access was blocked (Cycle)
system.cpu.dcache.blockedCycles::no_targets            0                       # number of cycles access was blocked (Cycle)
system.cpu.dcache.blockedCauses::no_mshrs            0                       # number of times access was blocked (Count)
system.cpu.dcache.blockedCauses::no_targets            0                       # number of times access was blocked (Count)
system.cpu.dcache.avgBlocked::no_mshrs            nan                       # average number of cycles each access was blocked ((Cycle/Count))
system.cpu.dcache.avgBlocked::no_targets          nan                       # average number of cycles each access was blocked ((Cycle/Count))
system.cpu.dcache.writebacks::writebacks       117749                       # number of writebacks (Count)
system.cpu.dcache.writebacks::total            117749                       # number of writebacks (Count)
system.cpu.dcache.demandMshrMisses::cpu.data       124114                       # number of demand (read+write) MSHR misses (Count)
system.cpu.dcache.demandMshrMisses::total       124114                       # number of demand (read+write) MSHR misses (Count)
system.cpu.dcache.overallMshrMisses::cpu.data       124114                       # number of overall MSHR misses (Count)
system.cpu.dcache.overallMshrMisses::total       124114                       # number of overall MSHR misses (Count)
system.cpu.dcache.overallMshrUncacheable::cpu.data       121104                       # number of overall MSHR uncacheable misses (Count)
system.cpu.dcache.overallMshrUncacheable::total       121104                       # number of overall MSHR uncacheable misses (Count)
system.cpu.dcache.demandMshrMissLatency::cpu.data   8359729236                       # number of demand (read+write) MSHR miss ticks (Tick)
system.cpu.dcache.demandMshrMissLatency::total   8359729236                       # number of demand (read+write) MSHR miss ticks (Tick)
system.cpu.dcache.overallMshrMissLatency::cpu.data   8359729236                       # number of overall MSHR miss ticks (Tick)
system.cpu.dcache.overallMshrMissLatency::total   8359729236                       # number of overall MSHR miss ticks (Tick)
system.cpu.dcache.overallMshrUncacheableLatency::cpu.data  27525090690                       # number of overall MSHR uncacheable ticks (Tick)
system.cpu.dcache.overallMshrUncacheableLatency::total  27525090690                       # number of overall MSHR uncacheable ticks (Tick)
system.cpu.dcache.demandMshrMissRate::cpu.data     0.002572                       # mshr miss ratio for demand accesses (Ratio)
system.cpu.dcache.demandMshrMissRate::total     0.002572                       # mshr miss ratio for demand accesses (Ratio)
system.cpu.dcache.overallMshrMissRate::cpu.data     0.002572                       # mshr miss ratio for overall accesses (Ratio)
system.cpu.dcache.overallMshrMissRate::total     0.002572                       # mshr miss ratio for overall accesses (Ratio)
system.cpu.dcache.demandAvgMshrMissLatency::cpu.data 67355.247885                       # average overall mshr miss latency ((Cycle/Count))
system.cpu.dcache.demandAvgMshrMissLatency::total 67355.247885                       # average overall mshr miss latency ((Cycle/Count))
system.cpu.dcache.overallAvgMshrMissLatency::cpu.data 67355.247885                       # average overall mshr miss latency ((Cycle/Count))
system.cpu.dcache.overallAvgMshrMissLatency::total 67355.247885                       # average overall mshr miss latency ((Cycle/Count))
system.cpu.dcache.overallAvgMshrUncacheableLatency::cpu.data 227284.736177                       # average overall mshr uncacheable latency ((Cycle/Count))
system.cpu.dcache.overallAvgMshrUncacheableLatency::total 227284.736177                       # average overall mshr uncacheable latency ((Cycle/Count))
system.cpu.dcache.replacements                 121233                       # number of replacements (Count)
system.cpu.dcache.CleanInvalidReq.missLatency::cpu.data     26839134                       # number of CleanInvalidReq miss ticks (Tick)
system.cpu.dcache.CleanInvalidReq.missLatency::total     26839134                       # number of CleanInvalidReq miss ticks (Tick)
system.cpu.dcache.CleanInvalidReq.avgMissLatency::cpu.data          inf                       # average CleanInvalidReq miss latency ((Tick/Count))
system.cpu.dcache.CleanInvalidReq.avgMissLatency::total          inf                       # average CleanInvalidReq miss latency ((Tick/Count))
system.cpu.dcache.CleanInvalidReq.mshrMisses::cpu.data         1019                       # number of CleanInvalidReq MSHR misses (Count)
system.cpu.dcache.CleanInvalidReq.mshrMisses::total         1019                       # number of CleanInvalidReq MSHR misses (Count)
system.cpu.dcache.CleanInvalidReq.mshrMissLatency::cpu.data     26160480                       # number of CleanInvalidReq MSHR miss ticks (Tick)
system.cpu.dcache.CleanInvalidReq.mshrMissLatency::total     26160480                       # number of CleanInvalidReq MSHR miss ticks (Tick)
system.cpu.dcache.CleanInvalidReq.mshrMissRate::cpu.data          inf                       # mshr miss rate for CleanInvalidReq accesses (Ratio)
system.cpu.dcache.CleanInvalidReq.mshrMissRate::total          inf                       # mshr miss rate for CleanInvalidReq accesses (Ratio)
system.cpu.dcache.CleanInvalidReq.avgMshrMissLatency::cpu.data 25672.698724                       # average CleanInvalidReq mshr miss latency ((Tick/Count))
system.cpu.dcache.CleanInvalidReq.avgMshrMissLatency::total 25672.698724                       # average CleanInvalidReq mshr miss latency ((Tick/Count))
system.cpu.dcache.ReadReq.hits::cpu.data     28181057                       # number of ReadReq hits (Count)
system.cpu.dcache.ReadReq.hits::total        28181057                       # number of ReadReq hits (Count)
system.cpu.dcache.ReadReq.misses::cpu.data         8637                       # number of ReadReq misses (Count)
system.cpu.dcache.ReadReq.misses::total          8637                       # number of ReadReq misses (Count)
system.cpu.dcache.ReadReq.missLatency::cpu.data    116717499                       # number of ReadReq miss ticks (Tick)
system.cpu.dcache.ReadReq.missLatency::total    116717499                       # number of ReadReq miss ticks (Tick)
system.cpu.dcache.ReadReq.accesses::cpu.data     28189694                       # number of ReadReq accesses(hits+misses) (Count)
system.cpu.dcache.ReadReq.accesses::total     28189694                       # number of ReadReq accesses(hits+misses) (Count)
system.cpu.dcache.ReadReq.missRate::cpu.data     0.000306                       # miss rate for ReadReq accesses (Ratio)
system.cpu.dcache.ReadReq.missRate::total     0.000306                       # miss rate for ReadReq accesses (Ratio)
system.cpu.dcache.ReadReq.avgMissLatency::cpu.data 13513.662035                       # average ReadReq miss latency ((Tick/Count))
system.cpu.dcache.ReadReq.avgMissLatency::total 13513.662035                       # average ReadReq miss latency ((Tick/Count))
system.cpu.dcache.ReadReq.mshrMisses::cpu.data         8637                       # number of ReadReq MSHR misses (Count)
system.cpu.dcache.ReadReq.mshrMisses::total         8637                       # number of ReadReq MSHR misses (Count)
system.cpu.dcache.ReadReq.mshrUncacheable::cpu.data       118973                       # number of ReadReq MSHR uncacheable (Count)
system.cpu.dcache.ReadReq.mshrUncacheable::total       118973                       # number of ReadReq MSHR uncacheable (Count)
system.cpu.dcache.ReadReq.mshrMissLatency::cpu.data    110965257                       # number of ReadReq MSHR miss ticks (Tick)
system.cpu.dcache.ReadReq.mshrMissLatency::total    110965257                       # number of ReadReq MSHR miss ticks (Tick)
system.cpu.dcache.ReadReq.mshrUncacheableLatency::cpu.data  27525090690                       # number of ReadReq MSHR uncacheable ticks (Tick)
system.cpu.dcache.ReadReq.mshrUncacheableLatency::total  27525090690                       # number of ReadReq MSHR uncacheable ticks (Tick)
system.cpu.dcache.ReadReq.mshrMissRate::cpu.data     0.000306                       # mshr miss rate for ReadReq accesses (Ratio)
system.cpu.dcache.ReadReq.mshrMissRate::total     0.000306                       # mshr miss rate for ReadReq accesses (Ratio)
system.cpu.dcache.ReadReq.avgMshrMissLatency::cpu.data 12847.662035                       # average ReadReq mshr miss latency ((Tick/Count))
system.cpu.dcache.ReadReq.avgMshrMissLatency::total 12847.662035                       # average ReadReq mshr miss latency ((Tick/Count))
system.cpu.dcache.ReadReq.avgMshrUncacheableLatency::cpu.data 231355.775596                       # average ReadReq mshr uncacheable latency ((Tick/Count))
system.cpu.dcache.ReadReq.avgMshrUncacheableLatency::total 231355.775596                       # average ReadReq mshr uncacheable latency ((Tick/Count))
system.cpu.dcache.WriteReq.hits::cpu.data     19948001                       # number of WriteReq hits (Count)
system.cpu.dcache.WriteReq.hits::total       19948001                       # number of WriteReq hits (Count)
system.cpu.dcache.WriteReq.misses::cpu.data       115477                       # number of WriteReq misses (Count)
system.cpu.dcache.WriteReq.misses::total       115477                       # number of WriteReq misses (Count)
system.cpu.dcache.WriteReq.missLatency::cpu.data   8325671661                       # number of WriteReq miss ticks (Tick)
system.cpu.dcache.WriteReq.missLatency::total   8325671661                       # number of WriteReq miss ticks (Tick)
system.cpu.dcache.WriteReq.accesses::cpu.data     20063478                       # number of WriteReq accesses(hits+misses) (Count)
system.cpu.dcache.WriteReq.accesses::total     20063478                       # number of WriteReq accesses(hits+misses) (Count)
system.cpu.dcache.WriteReq.missRate::cpu.data     0.005756                       # miss rate for WriteReq accesses (Ratio)
system.cpu.dcache.WriteReq.missRate::total     0.005756                       # miss rate for WriteReq accesses (Ratio)
system.cpu.dcache.WriteReq.avgMissLatency::cpu.data 72098.094521                       # average WriteReq miss latency ((Tick/Count))
system.cpu.dcache.WriteReq.avgMissLatency::total 72098.094521                       # average WriteReq miss latency ((Tick/Count))
system.cpu.dcache.WriteReq.mshrMisses::cpu.data       115477                       # number of WriteReq MSHR misses (Count)
system.cpu.dcache.WriteReq.mshrMisses::total       115477                       # number of WriteReq MSHR misses (Count)
system.cpu.dcache.WriteReq.mshrUncacheable::cpu.data         2131                       # number of WriteReq MSHR uncacheable (Count)
system.cpu.dcache.WriteReq.mshrUncacheable::total         2131                       # number of WriteReq MSHR uncacheable (Count)
system.cpu.dcache.WriteReq.mshrMissLatency::cpu.data   8248763979                       # number of WriteReq MSHR miss ticks (Tick)
system.cpu.dcache.WriteReq.mshrMissLatency::total   8248763979                       # number of WriteReq MSHR miss ticks (Tick)
system.cpu.dcache.WriteReq.mshrMissRate::cpu.data     0.005756                       # mshr miss rate for WriteReq accesses (Ratio)
system.cpu.dcache.WriteReq.mshrMissRate::total     0.005756                       # mshr miss rate for WriteReq accesses (Ratio)
system.cpu.dcache.WriteReq.avgMshrMissLatency::cpu.data 71432.094521                       # average WriteReq mshr miss latency ((Tick/Count))
system.cpu.dcache.WriteReq.avgMshrMissLatency::total 71432.094521                       # average WriteReq mshr miss latency ((Tick/Count))
system.cpu.dcache.power_state.pwrStateResidencyTicks::UNDEFINED 131582376243                       # Cumulative time (in ticks) in various power states (Tick)
system.cpu.dcache.tags.tagsInUse           509.977210                       # Average ticks per tags in use ((Tick/Count))
system.cpu.dcache.tags.totalRefs             47946998                       # Total number of references to valid blocks. (Count)
system.cpu.dcache.tags.sampledRefs             122256                       # Sample count of references to valid blocks. (Count)
system.cpu.dcache.tags.avgRefs             392.185234                       # Average number of references to valid blocks. ((Count/Count))
system.cpu.dcache.tags.warmupTick              472860                       # The tick when the warmup percentage was hit. (Tick)
system.cpu.dcache.tags.occupancies::cpu.data   509.977210                       # Average occupied blocks per tick, per requestor ((Count/Tick))
system.cpu.dcache.tags.avgOccs::cpu.data     0.996049                       # Average percentage of cache occupancy ((Ratio/Tick))
system.cpu.dcache.tags.avgOccs::total        0.996049                       # Average percentage of cache occupancy ((Ratio/Tick))
system.cpu.dcache.tags.occupanciesTaskId::1024          512                       # Occupied blocks per task id (Count)
system.cpu.dcache.tags.ageTaskId_1024::0           13                       # Occupied blocks per task id, per block age (Count)
system.cpu.dcache.tags.ageTaskId_1024::1          108                       # Occupied blocks per task id, per block age (Count)
system.cpu.dcache.tags.ageTaskId_1024::2          389                       # Occupied blocks per task id, per block age (Count)
system.cpu.dcache.tags.ageTaskId_1024::4            2                       # Occupied blocks per task id, per block age (Count)
system.cpu.dcache.tags.ratioOccsTaskId::1024            1                       # Ratio of occupied blocks and all blocks, per task id (Ratio)
system.cpu.dcache.tags.tagAccesses          386156296                       # Number of tag accesses (Count)
system.cpu.dcache.tags.dataAccesses         386156296                       # Number of data accesses (Count)
system.cpu.dcache.tags.power_state.pwrStateResidencyTicks::UNDEFINED 131582376243                       # Cumulative time (in ticks) in various power states (Tick)
system.cpu.dtb_walker_cache.demandHits::cpu.mmu.dtb.walker         6102                       # number of demand (read+write) hits (Count)
system.cpu.dtb_walker_cache.demandHits::total         6102                       # number of demand (read+write) hits (Count)
system.cpu.dtb_walker_cache.overallHits::cpu.mmu.dtb.walker         6102                       # number of overall hits (Count)
system.cpu.dtb_walker_cache.overallHits::total         6102                       # number of overall hits (Count)
system.cpu.dtb_walker_cache.demandMisses::cpu.mmu.dtb.walker         8090                       # number of demand (read+write) misses (Count)
system.cpu.dtb_walker_cache.demandMisses::total         8090                       # number of demand (read+write) misses (Count)
system.cpu.dtb_walker_cache.overallMisses::cpu.mmu.dtb.walker         8090                       # number of overall misses (Count)
system.cpu.dtb_walker_cache.overallMisses::total         8090                       # number of overall misses (Count)
system.cpu.dtb_walker_cache.demandMissLatency::cpu.mmu.dtb.walker     38374587                       # number of demand (read+write) miss ticks (Tick)
system.cpu.dtb_walker_cache.demandMissLatency::total     38374587                       # number of demand (read+write) miss ticks (Tick)
system.cpu.dtb_walker_cache.overallMissLatency::cpu.mmu.dtb.walker     38374587                       # number of overall miss ticks (Tick)
system.cpu.dtb_walker_cache.overallMissLatency::total     38374587                       # number of overall miss ticks (Tick)
system.cpu.dtb_walker_cache.demandAccesses::cpu.mmu.dtb.walker        14192                       # number of demand (read+write) accesses (Count)
system.cpu.dtb_walker_cache.demandAccesses::total        14192                       # number of demand (read+write) accesses (Count)
system.cpu.dtb_walker_cache.overallAccesses::cpu.mmu.dtb.walker        14192                       # number of overall (read+write) accesses (Count)
system.cpu.dtb_walker_cache.overallAccesses::total        14192                       # number of overall (read+write) accesses (Count)
system.cpu.dtb_walker_cache.demandMissRate::cpu.mmu.dtb.walker     0.570039                       # miss rate for demand accesses (Ratio)
system.cpu.dtb_walker_cache.demandMissRate::total     0.570039                       # miss rate for demand accesses (Ratio)
system.cpu.dtb_walker_cache.overallMissRate::cpu.mmu.dtb.walker     0.570039                       # miss rate for overall accesses (Ratio)
system.cpu.dtb_walker_cache.overallMissRate::total     0.570039                       # miss rate for overall accesses (Ratio)
system.cpu.dtb_walker_cache.demandAvgMissLatency::cpu.mmu.dtb.walker  4743.459456                       # average overall miss latency ((Cycle/Count))
system.cpu.dtb_walker_cache.demandAvgMissLatency::total  4743.459456                       # average overall miss latency ((Cycle/Count))
system.cpu.dtb_walker_cache.overallAvgMissLatency::cpu.mmu.dtb.walker  4743.459456                       # average overall miss latency ((Cycle/Count))
system.cpu.dtb_walker_cache.overallAvgMissLatency::total  4743.459456                       # average overall miss latency ((Cycle/Count))
system.cpu.dtb_walker_cache.blockedCycles::no_mshrs            0                       # number of cycles access was blocked (Cycle)
system.cpu.dtb_walker_cache.blockedCycles::no_targets            0                       # number of cycles access was blocked (Cycle)
system.cpu.dtb_walker_cache.blockedCauses::no_mshrs            0                       # number of times access was blocked (Count)
system.cpu.dtb_walker_cache.blockedCauses::no_targets            0                       # number of times access was blocked (Count)
system.cpu.dtb_walker_cache.avgBlocked::no_mshrs          nan                       # average number of cycles each access was blocked ((Cycle/Count))
system.cpu.dtb_walker_cache.avgBlocked::no_targets          nan                       # average number of cycles each access was blocked ((Cycle/Count))
system.cpu.dtb_walker_cache.writebacks::writebacks           88                       # number of writebacks (Count)
system.cpu.dtb_walker_cache.writebacks::total           88                       # number of writebacks (Count)
system.cpu.dtb_walker_cache.demandMshrMisses::cpu.mmu.dtb.walker         8090                       # number of demand (read+write) MSHR misses (Count)
system.cpu.dtb_walker_cache.demandMshrMisses::total         8090                       # number of demand (read+write) MSHR misses (Count)
system.cpu.dtb_walker_cache.overallMshrMisses::cpu.mmu.dtb.walker         8090                       # number of overall MSHR misses (Count)
system.cpu.dtb_walker_cache.overallMshrMisses::total         8090                       # number of overall MSHR misses (Count)
system.cpu.dtb_walker_cache.demandMshrMissLatency::cpu.mmu.dtb.walker     32986647                       # number of demand (read+write) MSHR miss ticks (Tick)
system.cpu.dtb_walker_cache.demandMshrMissLatency::total     32986647                       # number of demand (read+write) MSHR miss ticks (Tick)
system.cpu.dtb_walker_cache.overallMshrMissLatency::cpu.mmu.dtb.walker     32986647                       # number of overall MSHR miss ticks (Tick)
system.cpu.dtb_walker_cache.overallMshrMissLatency::total     32986647                       # number of overall MSHR miss ticks (Tick)
system.cpu.dtb_walker_cache.demandMshrMissRate::cpu.mmu.dtb.walker     0.570039                       # mshr miss ratio for demand accesses (Ratio)
system.cpu.dtb_walker_cache.demandMshrMissRate::total     0.570039                       # mshr miss ratio for demand accesses (Ratio)
system.cpu.dtb_walker_cache.overallMshrMissRate::cpu.mmu.dtb.walker     0.570039                       # mshr miss ratio for overall accesses (Ratio)
system.cpu.dtb_walker_cache.overallMshrMissRate::total     0.570039                       # mshr miss ratio for overall accesses (Ratio)
system.cpu.dtb_walker_cache.demandAvgMshrMissLatency::cpu.mmu.dtb.walker  4077.459456                       # average overall mshr miss latency ((Cycle/Count))
system.cpu.dtb_walker_cache.demandAvgMshrMissLatency::total  4077.459456                       # average overall mshr miss latency ((Cycle/Count))
system.cpu.dtb_walker_cache.overallAvgMshrMissLatency::cpu.mmu.dtb.walker  4077.459456                       # average overall mshr miss latency ((Cycle/Count))
system.cpu.dtb_walker_cache.overallAvgMshrMissLatency::total  4077.459456                       # average overall mshr miss latency ((Cycle/Count))
system.cpu.dtb_walker_cache.replacements         6530                       # number of replacements (Count)
system.cpu.dtb_walker_cache.ReadReq.hits::cpu.mmu.dtb.walker         6099                       # number of ReadReq hits (Count)
system.cpu.dtb_walker_cache.ReadReq.hits::total         6099                       # number of ReadReq hits (Count)
system.cpu.dtb_walker_cache.ReadReq.misses::cpu.mmu.dtb.walker         8084                       # number of ReadReq misses (Count)
system.cpu.dtb_walker_cache.ReadReq.misses::total         8084                       # number of ReadReq misses (Count)
system.cpu.dtb_walker_cache.ReadReq.missLatency::cpu.mmu.dtb.walker     38348946                       # number of ReadReq miss ticks (Tick)
system.cpu.dtb_walker_cache.ReadReq.missLatency::total     38348946                       # number of ReadReq miss ticks (Tick)
system.cpu.dtb_walker_cache.ReadReq.accesses::cpu.mmu.dtb.walker        14183                       # number of ReadReq accesses(hits+misses) (Count)
system.cpu.dtb_walker_cache.ReadReq.accesses::total        14183                       # number of ReadReq accesses(hits+misses) (Count)
system.cpu.dtb_walker_cache.ReadReq.missRate::cpu.mmu.dtb.walker     0.569978                       # miss rate for ReadReq accesses (Ratio)
system.cpu.dtb_walker_cache.ReadReq.missRate::total     0.569978                       # miss rate for ReadReq accesses (Ratio)
system.cpu.dtb_walker_cache.ReadReq.avgMissLatency::cpu.mmu.dtb.walker  4743.808263                       # average ReadReq miss latency ((Tick/Count))
system.cpu.dtb_walker_cache.ReadReq.avgMissLatency::total  4743.808263                       # average ReadReq miss latency ((Tick/Count))
system.cpu.dtb_walker_cache.ReadReq.mshrMisses::cpu.mmu.dtb.walker         8084                       # number of ReadReq MSHR misses (Count)
system.cpu.dtb_walker_cache.ReadReq.mshrMisses::total         8084                       # number of ReadReq MSHR misses (Count)
system.cpu.dtb_walker_cache.ReadReq.mshrMissLatency::cpu.mmu.dtb.walker     32965002                       # number of ReadReq MSHR miss ticks (Tick)
system.cpu.dtb_walker_cache.ReadReq.mshrMissLatency::total     32965002                       # number of ReadReq MSHR miss ticks (Tick)
system.cpu.dtb_walker_cache.ReadReq.mshrMissRate::cpu.mmu.dtb.walker     0.569978                       # mshr miss rate for ReadReq accesses (Ratio)
system.cpu.dtb_walker_cache.ReadReq.mshrMissRate::total     0.569978                       # mshr miss rate for ReadReq accesses (Ratio)
system.cpu.dtb_walker_cache.ReadReq.avgMshrMissLatency::cpu.mmu.dtb.walker  4077.808263                       # average ReadReq mshr miss latency ((Tick/Count))
system.cpu.dtb_walker_cache.ReadReq.avgMshrMissLatency::total  4077.808263                       # average ReadReq mshr miss latency ((Tick/Count))
system.cpu.dtb_walker_cache.WriteReq.hits::cpu.mmu.dtb.walker            3                       # number of WriteReq hits (Count)
system.cpu.dtb_walker_cache.WriteReq.hits::total            3                       # number of WriteReq hits (Count)
system.cpu.dtb_walker_cache.WriteReq.misses::cpu.mmu.dtb.walker            6                       # number of WriteReq misses (Count)
system.cpu.dtb_walker_cache.WriteReq.misses::total            6                       # number of WriteReq misses (Count)
system.cpu.dtb_walker_cache.WriteReq.missLatency::cpu.mmu.dtb.walker        25641                       # number of WriteReq miss ticks (Tick)
system.cpu.dtb_walker_cache.WriteReq.missLatency::total        25641                       # number of WriteReq miss ticks (Tick)
system.cpu.dtb_walker_cache.WriteReq.accesses::cpu.mmu.dtb.walker            9                       # number of WriteReq accesses(hits+misses) (Count)
system.cpu.dtb_walker_cache.WriteReq.accesses::total            9                       # number of WriteReq accesses(hits+misses) (Count)
system.cpu.dtb_walker_cache.WriteReq.missRate::cpu.mmu.dtb.walker     0.666667                       # miss rate for WriteReq accesses (Ratio)
system.cpu.dtb_walker_cache.WriteReq.missRate::total     0.666667                       # miss rate for WriteReq accesses (Ratio)
system.cpu.dtb_walker_cache.WriteReq.avgMissLatency::cpu.mmu.dtb.walker  4273.500000                       # average WriteReq miss latency ((Tick/Count))
system.cpu.dtb_walker_cache.WriteReq.avgMissLatency::total  4273.500000                       # average WriteReq miss latency ((Tick/Count))
system.cpu.dtb_walker_cache.WriteReq.mshrMisses::cpu.mmu.dtb.walker            6                       # number of WriteReq MSHR misses (Count)
system.cpu.dtb_walker_cache.WriteReq.mshrMisses::total            6                       # number of WriteReq MSHR misses (Count)
system.cpu.dtb_walker_cache.WriteReq.mshrMissLatency::cpu.mmu.dtb.walker        21645                       # number of WriteReq MSHR miss ticks (Tick)
system.cpu.dtb_walker_cache.WriteReq.mshrMissLatency::total        21645                       # number of WriteReq MSHR miss ticks (Tick)
system.cpu.dtb_walker_cache.WriteReq.mshrMissRate::cpu.mmu.dtb.walker     0.666667                       # mshr miss rate for WriteReq accesses (Ratio)
system.cpu.dtb_walker_cache.WriteReq.mshrMissRate::total     0.666667                       # mshr miss rate for WriteReq accesses (Ratio)
system.cpu.dtb_walker_cache.WriteReq.avgMshrMissLatency::cpu.mmu.dtb.walker  3607.500000                       # average WriteReq mshr miss latency ((Tick/Count))
system.cpu.dtb_walker_cache.WriteReq.avgMshrMissLatency::total  3607.500000                       # average WriteReq mshr miss latency ((Tick/Count))
system.cpu.dtb_walker_cache.power_state.pwrStateResidencyTicks::UNDEFINED 131582376243                       # Cumulative time (in ticks) in various power states (Tick)
system.cpu.dtb_walker_cache.tags.tagsInUse    12.706475                       # Average ticks per tags in use ((Tick/Count))
system.cpu.dtb_walker_cache.tags.totalRefs        14176                       # Total number of references to valid blocks. (Count)
system.cpu.dtb_walker_cache.tags.sampledRefs         8068                       # Sample count of references to valid blocks. (Count)
system.cpu.dtb_walker_cache.tags.avgRefs     1.757065                       # Average number of references to valid blocks. ((Count/Count))
system.cpu.dtb_walker_cache.tags.warmupTick       372960                       # The tick when the warmup percentage was hit. (Tick)
system.cpu.dtb_walker_cache.tags.occupancies::cpu.mmu.dtb.walker    12.706475                       # Average occupied blocks per tick, per requestor ((Count/Tick))
system.cpu.dtb_walker_cache.tags.avgOccs::cpu.mmu.dtb.walker     0.794155                       # Average percentage of cache occupancy ((Ratio/Tick))
system.cpu.dtb_walker_cache.tags.avgOccs::total     0.794155                       # Average percentage of cache occupancy ((Ratio/Tick))
system.cpu.dtb_walker_cache.tags.occupanciesTaskId::1024           16                       # Occupied blocks per task id (Count)
system.cpu.dtb_walker_cache.tags.ageTaskId_1024::2            4                       # Occupied blocks per task id, per block age (Count)
system.cpu.dtb_walker_cache.tags.ageTaskId_1024::3           12                       # Occupied blocks per task id, per block age (Count)
system.cpu.dtb_walker_cache.tags.ratioOccsTaskId::1024            1                       # Ratio of occupied blocks and all blocks, per task id (Ratio)
system.cpu.dtb_walker_cache.tags.tagAccesses        36468                       # Number of tag accesses (Count)
system.cpu.dtb_walker_cache.tags.dataAccesses        36468                       # Number of data accesses (Count)
system.cpu.dtb_walker_cache.tags.power_state.pwrStateResidencyTicks::UNDEFINED 131582376243                       # Cumulative time (in ticks) in various power states (Tick)
system.cpu.exec_context.thread_0.numInsts     78206972                       # Number of instructions committed (Count)
system.cpu.exec_context.thread_0.numOps     109514991                       # Number of ops (including micro ops) committed (Count)
system.cpu.exec_context.thread_0.numIntAluAccesses    108679534                       # Number of integer alu accesses (Count)
system.cpu.exec_context.thread_0.numFpAluAccesses            0                       # Number of float alu accesses (Count)
system.cpu.exec_context.thread_0.numVecAluAccesses            0                       # Number of vector alu accesses (Count)
system.cpu.exec_context.thread_0.numCallsReturns      1354826                       # Number of times a function call or return occured (Count)
system.cpu.exec_context.thread_0.numCondCtrlInsts      6499138                       # Number of instructions that are conditional controls (Count)
system.cpu.exec_context.thread_0.numIntInsts    108679534                       # Number of integer instructions (Count)
system.cpu.exec_context.thread_0.numFpInsts            0                       # Number of float instructions (Count)
system.cpu.exec_context.thread_0.numVecInsts            0                       # Number of vector instructions (Count)
system.cpu.exec_context.thread_0.numIntRegReads    273413641                       # Number of times the integer registers were read (Count)
system.cpu.exec_context.thread_0.numIntRegWrites     80245297                       # Number of times the integer registers were written (Count)
system.cpu.exec_context.thread_0.numFpRegReads            0                       # Number of times the floating registers were read (Count)
system.cpu.exec_context.thread_0.numFpRegWrites            0                       # Number of times the floating registers were written (Count)
system.cpu.exec_context.thread_0.numVecRegReads            0                       # Number of times the vector registers were read (Count)
system.cpu.exec_context.thread_0.numVecRegWrites            0                       # Number of times the vector registers were written (Count)
system.cpu.exec_context.thread_0.numVecPredRegReads            0                       # Number of times the predicate registers were read (Count)
system.cpu.exec_context.thread_0.numVecPredRegWrites            0                       # Number of times the predicate registers were written (Count)
system.cpu.exec_context.thread_0.numCCRegReads     42440927                       # Number of times the CC registers were read (Count)
system.cpu.exec_context.thread_0.numCCRegWrites     29463868                       # Number of times the CC registers were written (Count)
system.cpu.exec_context.thread_0.numMemRefs     48375300                       # Number of memory refs (Count)
system.cpu.exec_context.thread_0.numLoadInsts     28307643                       # Number of load instructions (Count)
system.cpu.exec_context.thread_0.numStoreInsts     20067657                       # Number of store instructions (Count)
system.cpu.exec_context.thread_0.numIdleCycles            0                       # Number of idle cycles (Cycle)
system.cpu.exec_context.thread_0.numBusyCycles    395142271                       # Number of busy cycles (Cycle)
system.cpu.exec_context.thread_0.notIdleFraction            1                       # Percentage of non-idle cycles (Ratio)
system.cpu.exec_context.thread_0.idleFraction            0                       # Percentage of idle cycles (Ratio)
system.cpu.exec_context.thread_0.numBranches      8403365                       # Number of branches fetched (Count)
system.cpu.exec_context.thread_0.statExecutedInstType::No_OpClass       559641      0.51%      0.51% # Class of executed instruction. (Count)
system.cpu.exec_context.thread_0.statExecutedInstType::IntAlu     60574987     55.31%     55.82% # Class of executed instruction. (Count)
system.cpu.exec_context.thread_0.statExecutedInstType::IntMult         6592      0.01%     55.83% # Class of executed instruction. (Count)
system.cpu.exec_context.thread_0.statExecutedInstType::IntDiv            7      0.00%     55.83% # Class of executed instruction. (Count)
system.cpu.exec_context.thread_0.statExecutedInstType::FloatAdd            0      0.00%     55.83% # Class of executed instruction. (Count)
system.cpu.exec_context.thread_0.statExecutedInstType::FloatCmp            0      0.00%     55.83% # Class of executed instruction. (Count)
system.cpu.exec_context.thread_0.statExecutedInstType::FloatCvt            0      0.00%     55.83% # Class of executed instruction. (Count)
system.cpu.exec_context.thread_0.statExecutedInstType::FloatMult            0      0.00%     55.83% # Class of executed instruction. (Count)
system.cpu.exec_context.thread_0.statExecutedInstType::FloatMultAcc            0      0.00%     55.83% # Class of executed instruction. (Count)
system.cpu.exec_context.thread_0.statExecutedInstType::FloatDiv            0      0.00%     55.83% # Class of executed instruction. (Count)
system.cpu.exec_context.thread_0.statExecutedInstType::FloatMisc            0      0.00%     55.83% # Class of executed instruction. (Count)
system.cpu.exec_context.thread_0.statExecutedInstType::FloatSqrt            0      0.00%     55.83% # Class of executed instruction. (Count)
system.cpu.exec_context.thread_0.statExecutedInstType::SimdAdd            0      0.00%     55.83% # Class of executed instruction. (Count)
system.cpu.exec_context.thread_0.statExecutedInstType::SimdAddAcc            0      0.00%     55.83% # Class of executed instruction. (Count)
system.cpu.exec_context.thread_0.statExecutedInstType::SimdAlu            0      0.00%     55.83% # Class of executed instruction. (Count)
system.cpu.exec_context.thread_0.statExecutedInstType::SimdCmp            0      0.00%     55.83% # Class of executed instruction. (Count)
system.cpu.exec_context.thread_0.statExecutedInstType::SimdCvt            0      0.00%     55.83% # Class of executed instruction. (Count)
system.cpu.exec_context.thread_0.statExecutedInstType::SimdMisc            0      0.00%     55.83% # Class of executed instruction. (Count)
system.cpu.exec_context.thread_0.statExecutedInstType::SimdMult            0      0.00%     55.83% # Class of executed instruction. (Count)
system.cpu.exec_context.thread_0.statExecutedInstType::SimdMultAcc            0      0.00%     55.83% # Class of executed instruction. (Count)
system.cpu.exec_context.thread_0.statExecutedInstType::SimdShift            0      0.00%     55.83% # Class of executed instruction. (Count)
system.cpu.exec_context.thread_0.statExecutedInstType::SimdShiftAcc            0      0.00%     55.83% # Class of executed instruction. (Count)
system.cpu.exec_context.thread_0.statExecutedInstType::SimdDiv            0      0.00%     55.83% # Class of executed instruction. (Count)
system.cpu.exec_context.thread_0.statExecutedInstType::SimdSqrt            0      0.00%     55.83% # Class of executed instruction. (Count)
system.cpu.exec_context.thread_0.statExecutedInstType::SimdFloatAdd            0      0.00%     55.83% # Class of executed instruction. (Count)
system.cpu.exec_context.thread_0.statExecutedInstType::SimdFloatAlu            0      0.00%     55.83% # Class of executed instruction. (Count)
system.cpu.exec_context.thread_0.statExecutedInstType::SimdFloatCmp            0      0.00%     55.83% # Class of executed instruction. (Count)
system.cpu.exec_context.thread_0.statExecutedInstType::SimdFloatCvt            0      0.00%     55.83% # Class of executed instruction. (Count)
system.cpu.exec_context.thread_0.statExecutedInstType::SimdFloatDiv            0      0.00%     55.83% # Class of executed instruction. (Count)
system.cpu.exec_context.thread_0.statExecutedInstType::SimdFloatMisc            0      0.00%     55.83% # Class of executed instruction. (Count)
system.cpu.exec_context.thread_0.statExecutedInstType::SimdFloatMult            0      0.00%     55.83% # Class of executed instruction. (Count)
system.cpu.exec_context.thread_0.statExecutedInstType::SimdFloatMultAcc            0      0.00%     55.83% # Class of executed instruction. (Count)
system.cpu.exec_context.thread_0.statExecutedInstType::SimdFloatSqrt            0      0.00%     55.83% # Class of executed instruction. (Count)
system.cpu.exec_context.thread_0.statExecutedInstType::SimdReduceAdd            0      0.00%     55.83% # Class of executed instruction. (Count)
system.cpu.exec_context.thread_0.statExecutedInstType::SimdReduceAlu            0      0.00%     55.83% # Class of executed instruction. (Count)
system.cpu.exec_context.thread_0.statExecutedInstType::SimdReduceCmp            0      0.00%     55.83% # Class of executed instruction. (Count)
system.cpu.exec_context.thread_0.statExecutedInstType::SimdFloatReduceAdd            0      0.00%     55.83% # Class of executed instruction. (Count)
system.cpu.exec_context.thread_0.statExecutedInstType::SimdFloatReduceCmp            0      0.00%     55.83% # Class of executed instruction. (Count)
system.cpu.exec_context.thread_0.statExecutedInstType::SimdAes            0      0.00%     55.83% # Class of executed instruction. (Count)
system.cpu.exec_context.thread_0.statExecutedInstType::SimdAesMix            0      0.00%     55.83% # Class of executed instruction. (Count)
system.cpu.exec_context.thread_0.statExecutedInstType::SimdSha1Hash            0      0.00%     55.83% # Class of executed instruction. (Count)
system.cpu.exec_context.thread_0.statExecutedInstType::SimdSha1Hash2            0      0.00%     55.83% # Class of executed instruction. (Count)
system.cpu.exec_context.thread_0.statExecutedInstType::SimdSha256Hash            0      0.00%     55.83% # Class of executed instruction. (Count)
system.cpu.exec_context.thread_0.statExecutedInstType::SimdSha256Hash2            0      0.00%     55.83% # Class of executed instruction. (Count)
system.cpu.exec_context.thread_0.statExecutedInstType::SimdShaSigma2            0      0.00%     55.83% # Class of executed instruction. (Count)
system.cpu.exec_context.thread_0.statExecutedInstType::SimdShaSigma3            0      0.00%     55.83% # Class of executed instruction. (Count)
system.cpu.exec_context.thread_0.statExecutedInstType::SimdPredAlu            0      0.00%     55.83% # Class of executed instruction. (Count)
system.cpu.exec_context.thread_0.statExecutedInstType::MemRead     28307643     25.85%     81.68% # Class of executed instruction. (Count)
system.cpu.exec_context.thread_0.statExecutedInstType::MemWrite     20067657     18.32%    100.00% # Class of executed instruction. (Count)
system.cpu.exec_context.thread_0.statExecutedInstType::FloatMemRead            0      0.00%    100.00% # Class of executed instruction. (Count)
system.cpu.exec_context.thread_0.statExecutedInstType::FloatMemWrite            0      0.00%    100.00% # Class of executed instruction. (Count)
system.cpu.exec_context.thread_0.statExecutedInstType::IprAccess            0      0.00%    100.00% # Class of executed instruction. (Count)
system.cpu.exec_context.thread_0.statExecutedInstType::InstPrefetch            0      0.00%    100.00% # Class of executed instruction. (Count)
system.cpu.exec_context.thread_0.statExecutedInstType::total    109516527                       # Class of executed instruction. (Count)
system.cpu.icache.demandHits::cpu.inst      104602050                       # number of demand (read+write) hits (Count)
system.cpu.icache.demandHits::total         104602050                       # number of demand (read+write) hits (Count)
system.cpu.icache.overallHits::cpu.inst     104602050                       # number of overall hits (Count)
system.cpu.icache.overallHits::total        104602050                       # number of overall hits (Count)
system.cpu.icache.demandMisses::cpu.inst          308                       # number of demand (read+write) misses (Count)
system.cpu.icache.demandMisses::total             308                       # number of demand (read+write) misses (Count)
system.cpu.icache.overallMisses::cpu.inst          308                       # number of overall misses (Count)
system.cpu.icache.overallMisses::total            308                       # number of overall misses (Count)
system.cpu.icache.demandMissLatency::cpu.inst     20939706                       # number of demand (read+write) miss ticks (Tick)
system.cpu.icache.demandMissLatency::total     20939706                       # number of demand (read+write) miss ticks (Tick)
system.cpu.icache.overallMissLatency::cpu.inst     20939706                       # number of overall miss ticks (Tick)
system.cpu.icache.overallMissLatency::total     20939706                       # number of overall miss ticks (Tick)
system.cpu.icache.demandAccesses::cpu.inst    104602358                       # number of demand (read+write) accesses (Count)
system.cpu.icache.demandAccesses::total     104602358                       # number of demand (read+write) accesses (Count)
system.cpu.icache.overallAccesses::cpu.inst    104602358                       # number of overall (read+write) accesses (Count)
system.cpu.icache.overallAccesses::total    104602358                       # number of overall (read+write) accesses (Count)
system.cpu.icache.demandMissRate::cpu.inst     0.000003                       # miss rate for demand accesses (Ratio)
system.cpu.icache.demandMissRate::total      0.000003                       # miss rate for demand accesses (Ratio)
system.cpu.icache.overallMissRate::cpu.inst     0.000003                       # miss rate for overall accesses (Ratio)
system.cpu.icache.overallMissRate::total     0.000003                       # miss rate for overall accesses (Ratio)
system.cpu.icache.demandAvgMissLatency::cpu.inst 67986.058442                       # average overall miss latency ((Cycle/Count))
system.cpu.icache.demandAvgMissLatency::total 67986.058442                       # average overall miss latency ((Cycle/Count))
system.cpu.icache.overallAvgMissLatency::cpu.inst 67986.058442                       # average overall miss latency ((Cycle/Count))
system.cpu.icache.overallAvgMissLatency::total 67986.058442                       # average overall miss latency ((Cycle/Count))
system.cpu.icache.blockedCycles::no_mshrs            0                       # number of cycles access was blocked (Cycle)
system.cpu.icache.blockedCycles::no_targets            0                       # number of cycles access was blocked (Cycle)
system.cpu.icache.blockedCauses::no_mshrs            0                       # number of times access was blocked (Count)
system.cpu.icache.blockedCauses::no_targets            0                       # number of times access was blocked (Count)
system.cpu.icache.avgBlocked::no_mshrs            nan                       # average number of cycles each access was blocked ((Cycle/Count))
system.cpu.icache.avgBlocked::no_targets          nan                       # average number of cycles each access was blocked ((Cycle/Count))
system.cpu.icache.demandMshrMisses::cpu.inst          308                       # number of demand (read+write) MSHR misses (Count)
system.cpu.icache.demandMshrMisses::total          308                       # number of demand (read+write) MSHR misses (Count)
system.cpu.icache.overallMshrMisses::cpu.inst          308                       # number of overall MSHR misses (Count)
system.cpu.icache.overallMshrMisses::total          308                       # number of overall MSHR misses (Count)
system.cpu.icache.demandMshrMissLatency::cpu.inst     20734578                       # number of demand (read+write) MSHR miss ticks (Tick)
system.cpu.icache.demandMshrMissLatency::total     20734578                       # number of demand (read+write) MSHR miss ticks (Tick)
system.cpu.icache.overallMshrMissLatency::cpu.inst     20734578                       # number of overall MSHR miss ticks (Tick)
system.cpu.icache.overallMshrMissLatency::total     20734578                       # number of overall MSHR miss ticks (Tick)
system.cpu.icache.demandMshrMissRate::cpu.inst     0.000003                       # mshr miss ratio for demand accesses (Ratio)
system.cpu.icache.demandMshrMissRate::total     0.000003                       # mshr miss ratio for demand accesses (Ratio)
system.cpu.icache.overallMshrMissRate::cpu.inst     0.000003                       # mshr miss ratio for overall accesses (Ratio)
system.cpu.icache.overallMshrMissRate::total     0.000003                       # mshr miss ratio for overall accesses (Ratio)
system.cpu.icache.demandAvgMshrMissLatency::cpu.inst 67320.058442                       # average overall mshr miss latency ((Cycle/Count))
system.cpu.icache.demandAvgMshrMissLatency::total 67320.058442                       # average overall mshr miss latency ((Cycle/Count))
system.cpu.icache.overallAvgMshrMissLatency::cpu.inst 67320.058442                       # average overall mshr miss latency ((Cycle/Count))
system.cpu.icache.overallAvgMshrMissLatency::total 67320.058442                       # average overall mshr miss latency ((Cycle/Count))
system.cpu.icache.replacements                      0                       # number of replacements (Count)
system.cpu.icache.ReadReq.hits::cpu.inst    104602050                       # number of ReadReq hits (Count)
system.cpu.icache.ReadReq.hits::total       104602050                       # number of ReadReq hits (Count)
system.cpu.icache.ReadReq.misses::cpu.inst          308                       # number of ReadReq misses (Count)
system.cpu.icache.ReadReq.misses::total           308                       # number of ReadReq misses (Count)
system.cpu.icache.ReadReq.missLatency::cpu.inst     20939706                       # number of ReadReq miss ticks (Tick)
system.cpu.icache.ReadReq.missLatency::total     20939706                       # number of ReadReq miss ticks (Tick)
system.cpu.icache.ReadReq.accesses::cpu.inst    104602358                       # number of ReadReq accesses(hits+misses) (Count)
system.cpu.icache.ReadReq.accesses::total    104602358                       # number of ReadReq accesses(hits+misses) (Count)
system.cpu.icache.ReadReq.missRate::cpu.inst     0.000003                       # miss rate for ReadReq accesses (Ratio)
system.cpu.icache.ReadReq.missRate::total     0.000003                       # miss rate for ReadReq accesses (Ratio)
system.cpu.icache.ReadReq.avgMissLatency::cpu.inst 67986.058442                       # average ReadReq miss latency ((Tick/Count))
system.cpu.icache.ReadReq.avgMissLatency::total 67986.058442                       # average ReadReq miss latency ((Tick/Count))
system.cpu.icache.ReadReq.mshrMisses::cpu.inst          308                       # number of ReadReq MSHR misses (Count)
system.cpu.icache.ReadReq.mshrMisses::total          308                       # number of ReadReq MSHR misses (Count)
system.cpu.icache.ReadReq.mshrMissLatency::cpu.inst     20734578                       # number of ReadReq MSHR miss ticks (Tick)
system.cpu.icache.ReadReq.mshrMissLatency::total     20734578                       # number of ReadReq MSHR miss ticks (Tick)
system.cpu.icache.ReadReq.mshrMissRate::cpu.inst     0.000003                       # mshr miss rate for ReadReq accesses (Ratio)
system.cpu.icache.ReadReq.mshrMissRate::total     0.000003                       # mshr miss rate for ReadReq accesses (Ratio)
system.cpu.icache.ReadReq.avgMshrMissLatency::cpu.inst 67320.058442                       # average ReadReq mshr miss latency ((Tick/Count))
system.cpu.icache.ReadReq.avgMshrMissLatency::total 67320.058442                       # average ReadReq mshr miss latency ((Tick/Count))
system.cpu.icache.power_state.pwrStateResidencyTicks::UNDEFINED 131582376243                       # Cumulative time (in ticks) in various power states (Tick)
system.cpu.icache.tags.tagsInUse           224.591306                       # Average ticks per tags in use ((Tick/Count))
system.cpu.icache.tags.totalRefs                    7                       # Total number of references to valid blocks. (Count)
system.cpu.icache.tags.sampledRefs                  2                       # Sample count of references to valid blocks. (Count)
system.cpu.icache.tags.avgRefs               3.500000                       # Average number of references to valid blocks. ((Count/Count))
system.cpu.icache.tags.warmupTick              302697                       # The tick when the warmup percentage was hit. (Tick)
system.cpu.icache.tags.occupancies::cpu.inst   224.591306                       # Average occupied blocks per tick, per requestor ((Count/Tick))
system.cpu.icache.tags.avgOccs::cpu.inst     0.438655                       # Average percentage of cache occupancy ((Ratio/Tick))
system.cpu.icache.tags.avgOccs::total        0.438655                       # Average percentage of cache occupancy ((Ratio/Tick))
system.cpu.icache.tags.occupanciesTaskId::1024          306                       # Occupied blocks per task id (Count)
system.cpu.icache.tags.ageTaskId_1024::0            2                       # Occupied blocks per task id, per block age (Count)
system.cpu.icache.tags.ageTaskId_1024::2           18                       # Occupied blocks per task id, per block age (Count)
system.cpu.icache.tags.ageTaskId_1024::4          286                       # Occupied blocks per task id, per block age (Count)
system.cpu.icache.tags.ratioOccsTaskId::1024     0.597656                       # Ratio of occupied blocks and all blocks, per task id (Ratio)
system.cpu.icache.tags.tagAccesses          836819172                       # Number of tag accesses (Count)
system.cpu.icache.tags.dataAccesses         836819172                       # Number of data accesses (Count)
system.cpu.icache.tags.power_state.pwrStateResidencyTicks::UNDEFINED 131582376243                       # Cumulative time (in ticks) in various power states (Tick)
system.cpu.interrupts.clk_domain.clock           5328                       # Clock period in ticks (Tick)
system.cpu.itb_walker_cache.demandHits::cpu.mmu.itb.walker            5                       # number of demand (read+write) hits (Count)
system.cpu.itb_walker_cache.demandHits::total            5                       # number of demand (read+write) hits (Count)
system.cpu.itb_walker_cache.overallHits::cpu.mmu.itb.walker            5                       # number of overall hits (Count)
system.cpu.itb_walker_cache.overallHits::total            5                       # number of overall hits (Count)
system.cpu.itb_walker_cache.demandMisses::cpu.mmu.itb.walker           14                       # number of demand (read+write) misses (Count)
system.cpu.itb_walker_cache.demandMisses::total           14                       # number of demand (read+write) misses (Count)
system.cpu.itb_walker_cache.overallMisses::cpu.mmu.itb.walker           14                       # number of overall misses (Count)
system.cpu.itb_walker_cache.overallMisses::total           14                       # number of overall misses (Count)
system.cpu.itb_walker_cache.demandMissLatency::cpu.mmu.itb.walker       280386                       # number of demand (read+write) miss ticks (Tick)
system.cpu.itb_walker_cache.demandMissLatency::total       280386                       # number of demand (read+write) miss ticks (Tick)
system.cpu.itb_walker_cache.overallMissLatency::cpu.mmu.itb.walker       280386                       # number of overall miss ticks (Tick)
system.cpu.itb_walker_cache.overallMissLatency::total       280386                       # number of overall miss ticks (Tick)
system.cpu.itb_walker_cache.demandAccesses::cpu.mmu.itb.walker           19                       # number of demand (read+write) accesses (Count)
system.cpu.itb_walker_cache.demandAccesses::total           19                       # number of demand (read+write) accesses (Count)
system.cpu.itb_walker_cache.overallAccesses::cpu.mmu.itb.walker           19                       # number of overall (read+write) accesses (Count)
system.cpu.itb_walker_cache.overallAccesses::total           19                       # number of overall (read+write) accesses (Count)
system.cpu.itb_walker_cache.demandMissRate::cpu.mmu.itb.walker     0.736842                       # miss rate for demand accesses (Ratio)
system.cpu.itb_walker_cache.demandMissRate::total     0.736842                       # miss rate for demand accesses (Ratio)
system.cpu.itb_walker_cache.overallMissRate::cpu.mmu.itb.walker     0.736842                       # miss rate for overall accesses (Ratio)
system.cpu.itb_walker_cache.overallMissRate::total     0.736842                       # miss rate for overall accesses (Ratio)
system.cpu.itb_walker_cache.demandAvgMissLatency::cpu.mmu.itb.walker 20027.571429                       # average overall miss latency ((Cycle/Count))
system.cpu.itb_walker_cache.demandAvgMissLatency::total 20027.571429                       # average overall miss latency ((Cycle/Count))
system.cpu.itb_walker_cache.overallAvgMissLatency::cpu.mmu.itb.walker 20027.571429                       # average overall miss latency ((Cycle/Count))
system.cpu.itb_walker_cache.overallAvgMissLatency::total 20027.571429                       # average overall miss latency ((Cycle/Count))
system.cpu.itb_walker_cache.blockedCycles::no_mshrs            0                       # number of cycles access was blocked (Cycle)
system.cpu.itb_walker_cache.blockedCycles::no_targets            0                       # number of cycles access was blocked (Cycle)
system.cpu.itb_walker_cache.blockedCauses::no_mshrs            0                       # number of times access was blocked (Count)
system.cpu.itb_walker_cache.blockedCauses::no_targets            0                       # number of times access was blocked (Count)
system.cpu.itb_walker_cache.avgBlocked::no_mshrs          nan                       # average number of cycles each access was blocked ((Cycle/Count))
system.cpu.itb_walker_cache.avgBlocked::no_targets          nan                       # average number of cycles each access was blocked ((Cycle/Count))
system.cpu.itb_walker_cache.writebacks::writebacks            5                       # number of writebacks (Count)
system.cpu.itb_walker_cache.writebacks::total            5                       # number of writebacks (Count)
system.cpu.itb_walker_cache.demandMshrMisses::cpu.mmu.itb.walker           14                       # number of demand (read+write) MSHR misses (Count)
system.cpu.itb_walker_cache.demandMshrMisses::total           14                       # number of demand (read+write) MSHR misses (Count)
system.cpu.itb_walker_cache.overallMshrMisses::cpu.mmu.itb.walker           14                       # number of overall MSHR misses (Count)
system.cpu.itb_walker_cache.overallMshrMisses::total           14                       # number of overall MSHR misses (Count)
system.cpu.itb_walker_cache.demandMshrMissLatency::cpu.mmu.itb.walker       271062                       # number of demand (read+write) MSHR miss ticks (Tick)
system.cpu.itb_walker_cache.demandMshrMissLatency::total       271062                       # number of demand (read+write) MSHR miss ticks (Tick)
system.cpu.itb_walker_cache.overallMshrMissLatency::cpu.mmu.itb.walker       271062                       # number of overall MSHR miss ticks (Tick)
system.cpu.itb_walker_cache.overallMshrMissLatency::total       271062                       # number of overall MSHR miss ticks (Tick)
system.cpu.itb_walker_cache.demandMshrMissRate::cpu.mmu.itb.walker     0.736842                       # mshr miss ratio for demand accesses (Ratio)
system.cpu.itb_walker_cache.demandMshrMissRate::total     0.736842                       # mshr miss ratio for demand accesses (Ratio)
system.cpu.itb_walker_cache.overallMshrMissRate::cpu.mmu.itb.walker     0.736842                       # mshr miss ratio for overall accesses (Ratio)
system.cpu.itb_walker_cache.overallMshrMissRate::total     0.736842                       # mshr miss ratio for overall accesses (Ratio)
system.cpu.itb_walker_cache.demandAvgMshrMissLatency::cpu.mmu.itb.walker 19361.571429                       # average overall mshr miss latency ((Cycle/Count))
system.cpu.itb_walker_cache.demandAvgMshrMissLatency::total 19361.571429                       # average overall mshr miss latency ((Cycle/Count))
system.cpu.itb_walker_cache.overallAvgMshrMissLatency::cpu.mmu.itb.walker 19361.571429                       # average overall mshr miss latency ((Cycle/Count))
system.cpu.itb_walker_cache.overallAvgMshrMissLatency::total 19361.571429                       # average overall mshr miss latency ((Cycle/Count))
system.cpu.itb_walker_cache.replacements            9                       # number of replacements (Count)
system.cpu.itb_walker_cache.ReadReq.misses::cpu.mmu.itb.walker           13                       # number of ReadReq misses (Count)
system.cpu.itb_walker_cache.ReadReq.misses::total           13                       # number of ReadReq misses (Count)
system.cpu.itb_walker_cache.ReadReq.missLatency::cpu.mmu.itb.walker       277056                       # number of ReadReq miss ticks (Tick)
system.cpu.itb_walker_cache.ReadReq.missLatency::total       277056                       # number of ReadReq miss ticks (Tick)
system.cpu.itb_walker_cache.ReadReq.accesses::cpu.mmu.itb.walker           13                       # number of ReadReq accesses(hits+misses) (Count)
system.cpu.itb_walker_cache.ReadReq.accesses::total           13                       # number of ReadReq accesses(hits+misses) (Count)
system.cpu.itb_walker_cache.ReadReq.missRate::cpu.mmu.itb.walker            1                       # miss rate for ReadReq accesses (Ratio)
system.cpu.itb_walker_cache.ReadReq.missRate::total            1                       # miss rate for ReadReq accesses (Ratio)
system.cpu.itb_walker_cache.ReadReq.avgMissLatency::cpu.mmu.itb.walker        21312                       # average ReadReq miss latency ((Tick/Count))
system.cpu.itb_walker_cache.ReadReq.avgMissLatency::total        21312                       # average ReadReq miss latency ((Tick/Count))
system.cpu.itb_walker_cache.ReadReq.mshrMisses::cpu.mmu.itb.walker           13                       # number of ReadReq MSHR misses (Count)
system.cpu.itb_walker_cache.ReadReq.mshrMisses::total           13                       # number of ReadReq MSHR misses (Count)
system.cpu.itb_walker_cache.ReadReq.mshrMissLatency::cpu.mmu.itb.walker       268398                       # number of ReadReq MSHR miss ticks (Tick)
system.cpu.itb_walker_cache.ReadReq.mshrMissLatency::total       268398                       # number of ReadReq MSHR miss ticks (Tick)
system.cpu.itb_walker_cache.ReadReq.mshrMissRate::cpu.mmu.itb.walker            1                       # mshr miss rate for ReadReq accesses (Ratio)
system.cpu.itb_walker_cache.ReadReq.mshrMissRate::total            1                       # mshr miss rate for ReadReq accesses (Ratio)
system.cpu.itb_walker_cache.ReadReq.avgMshrMissLatency::cpu.mmu.itb.walker        20646                       # average ReadReq mshr miss latency ((Tick/Count))
system.cpu.itb_walker_cache.ReadReq.avgMshrMissLatency::total        20646                       # average ReadReq mshr miss latency ((Tick/Count))
system.cpu.itb_walker_cache.WriteReq.hits::cpu.mmu.itb.walker            5                       # number of WriteReq hits (Count)
system.cpu.itb_walker_cache.WriteReq.hits::total            5                       # number of WriteReq hits (Count)
system.cpu.itb_walker_cache.WriteReq.misses::cpu.mmu.itb.walker            1                       # number of WriteReq misses (Count)
system.cpu.itb_walker_cache.WriteReq.misses::total            1                       # number of WriteReq misses (Count)
system.cpu.itb_walker_cache.WriteReq.missLatency::cpu.mmu.itb.walker         3330                       # number of WriteReq miss ticks (Tick)
system.cpu.itb_walker_cache.WriteReq.missLatency::total         3330                       # number of WriteReq miss ticks (Tick)
system.cpu.itb_walker_cache.WriteReq.accesses::cpu.mmu.itb.walker            6                       # number of WriteReq accesses(hits+misses) (Count)
system.cpu.itb_walker_cache.WriteReq.accesses::total            6                       # number of WriteReq accesses(hits+misses) (Count)
system.cpu.itb_walker_cache.WriteReq.missRate::cpu.mmu.itb.walker     0.166667                       # miss rate for WriteReq accesses (Ratio)
system.cpu.itb_walker_cache.WriteReq.missRate::total     0.166667                       # miss rate for WriteReq accesses (Ratio)
system.cpu.itb_walker_cache.WriteReq.avgMissLatency::cpu.mmu.itb.walker         3330                       # average WriteReq miss latency ((Tick/Count))
system.cpu.itb_walker_cache.WriteReq.avgMissLatency::total         3330                       # average WriteReq miss latency ((Tick/Count))
system.cpu.itb_walker_cache.WriteReq.mshrMisses::cpu.mmu.itb.walker            1                       # number of WriteReq MSHR misses (Count)
system.cpu.itb_walker_cache.WriteReq.mshrMisses::total            1                       # number of WriteReq MSHR misses (Count)
system.cpu.itb_walker_cache.WriteReq.mshrMissLatency::cpu.mmu.itb.walker         2664                       # number of WriteReq MSHR miss ticks (Tick)
system.cpu.itb_walker_cache.WriteReq.mshrMissLatency::total         2664                       # number of WriteReq MSHR miss ticks (Tick)
system.cpu.itb_walker_cache.WriteReq.mshrMissRate::cpu.mmu.itb.walker     0.166667                       # mshr miss rate for WriteReq accesses (Ratio)
system.cpu.itb_walker_cache.WriteReq.mshrMissRate::total     0.166667                       # mshr miss rate for WriteReq accesses (Ratio)
system.cpu.itb_walker_cache.WriteReq.avgMshrMissLatency::cpu.mmu.itb.walker         2664                       # average WriteReq mshr miss latency ((Tick/Count))
system.cpu.itb_walker_cache.WriteReq.avgMshrMissLatency::total         2664                       # average WriteReq mshr miss latency ((Tick/Count))
system.cpu.itb_walker_cache.power_state.pwrStateResidencyTicks::UNDEFINED 131582376243                       # Cumulative time (in ticks) in various power states (Tick)
system.cpu.itb_walker_cache.tags.tagsInUse     1.741391                       # Average ticks per tags in use ((Tick/Count))
system.cpu.itb_walker_cache.tags.totalRefs           16                       # Total number of references to valid blocks. (Count)
system.cpu.itb_walker_cache.tags.sampledRefs           11                       # Sample count of references to valid blocks. (Count)
system.cpu.itb_walker_cache.tags.avgRefs     1.454545                       # Average number of references to valid blocks. ((Count/Count))
system.cpu.itb_walker_cache.tags.warmupTick        85914                       # The tick when the warmup percentage was hit. (Tick)
system.cpu.itb_walker_cache.tags.occupancies::cpu.mmu.itb.walker     1.741391                       # Average occupied blocks per tick, per requestor ((Count/Tick))
system.cpu.itb_walker_cache.tags.avgOccs::cpu.mmu.itb.walker     0.108837                       # Average percentage of cache occupancy ((Ratio/Tick))
system.cpu.itb_walker_cache.tags.avgOccs::total     0.108837                       # Average percentage of cache occupancy ((Ratio/Tick))
system.cpu.itb_walker_cache.tags.occupanciesTaskId::1024            2                       # Occupied blocks per task id (Count)
system.cpu.itb_walker_cache.tags.ageTaskId_1024::4            2                       # Occupied blocks per task id, per block age (Count)
system.cpu.itb_walker_cache.tags.ratioOccsTaskId::1024     0.125000                       # Ratio of occupied blocks and all blocks, per task id (Ratio)
system.cpu.itb_walker_cache.tags.tagAccesses           51                       # Number of tag accesses (Count)
system.cpu.itb_walker_cache.tags.dataAccesses           51                       # Number of data accesses (Count)
system.cpu.itb_walker_cache.tags.power_state.pwrStateResidencyTicks::UNDEFINED 131582376243                       # Cumulative time (in ticks) in various power states (Tick)
system.cpu.l2cache.demandHits::cpu.mmu.dtb.walker         6070                       # number of demand (read+write) hits (Count)
system.cpu.l2cache.demandHits::cpu.mmu.itb.walker            6                       # number of demand (read+write) hits (Count)
system.cpu.l2cache.demandHits::cpu.inst            15                       # number of demand (read+write) hits (Count)
system.cpu.l2cache.demandHits::cpu.data          8990                       # number of demand (read+write) hits (Count)
system.cpu.l2cache.demandHits::total            15081                       # number of demand (read+write) hits (Count)
system.cpu.l2cache.overallHits::cpu.mmu.dtb.walker         6070                       # number of overall hits (Count)
system.cpu.l2cache.overallHits::cpu.mmu.itb.walker            6                       # number of overall hits (Count)
system.cpu.l2cache.overallHits::cpu.inst           15                       # number of overall hits (Count)
system.cpu.l2cache.overallHits::cpu.data         8990                       # number of overall hits (Count)
system.cpu.l2cache.overallHits::total           15081                       # number of overall hits (Count)
system.cpu.l2cache.demandMisses::cpu.mmu.dtb.walker          105                       # number of demand (read+write) misses (Count)
system.cpu.l2cache.demandMisses::cpu.mmu.itb.walker            4                       # number of demand (read+write) misses (Count)
system.cpu.l2cache.demandMisses::cpu.inst          293                       # number of demand (read+write) misses (Count)
system.cpu.l2cache.demandMisses::cpu.data       113676                       # number of demand (read+write) misses (Count)
system.cpu.l2cache.demandMisses::total         114078                       # number of demand (read+write) misses (Count)
system.cpu.l2cache.overallMisses::cpu.mmu.dtb.walker          105                       # number of overall misses (Count)
system.cpu.l2cache.overallMisses::cpu.mmu.itb.walker            4                       # number of overall misses (Count)
system.cpu.l2cache.overallMisses::cpu.inst          293                       # number of overall misses (Count)
system.cpu.l2cache.overallMisses::cpu.data       113676                       # number of overall misses (Count)
system.cpu.l2cache.overallMisses::total        114078                       # number of overall misses (Count)
system.cpu.l2cache.demandMissLatency::cpu.mmu.dtb.walker      1544454                       # number of demand (read+write) miss ticks (Tick)
system.cpu.l2cache.demandMissLatency::cpu.mmu.itb.walker       231435                       # number of demand (read+write) miss ticks (Tick)
system.cpu.l2cache.demandMissLatency::cpu.inst     20476503                       # number of demand (read+write) miss ticks (Tick)
system.cpu.l2cache.demandMissLatency::cpu.data   8242626123                       # number of demand (read+write) miss ticks (Tick)
system.cpu.l2cache.demandMissLatency::total   8264878515                       # number of demand (read+write) miss ticks (Tick)
system.cpu.l2cache.overallMissLatency::cpu.mmu.dtb.walker      1544454                       # number of overall miss ticks (Tick)
system.cpu.l2cache.overallMissLatency::cpu.mmu.itb.walker       231435                       # number of overall miss ticks (Tick)
system.cpu.l2cache.overallMissLatency::cpu.inst     20476503                       # number of overall miss ticks (Tick)
system.cpu.l2cache.overallMissLatency::cpu.data   8242626123                       # number of overall miss ticks (Tick)
system.cpu.l2cache.overallMissLatency::total   8264878515                       # number of overall miss ticks (Tick)
system.cpu.l2cache.demandAccesses::cpu.mmu.dtb.walker         6175                       # number of demand (read+write) accesses (Count)
system.cpu.l2cache.demandAccesses::cpu.mmu.itb.walker           10                       # number of demand (read+write) accesses (Count)
system.cpu.l2cache.demandAccesses::cpu.inst          308                       # number of demand (read+write) accesses (Count)
system.cpu.l2cache.demandAccesses::cpu.data       122666                       # number of demand (read+write) accesses (Count)
system.cpu.l2cache.demandAccesses::total       129159                       # number of demand (read+write) accesses (Count)
system.cpu.l2cache.overallAccesses::cpu.mmu.dtb.walker         6175                       # number of overall (read+write) accesses (Count)
system.cpu.l2cache.overallAccesses::cpu.mmu.itb.walker           10                       # number of overall (read+write) accesses (Count)
system.cpu.l2cache.overallAccesses::cpu.inst          308                       # number of overall (read+write) accesses (Count)
system.cpu.l2cache.overallAccesses::cpu.data       122666                       # number of overall (read+write) accesses (Count)
system.cpu.l2cache.overallAccesses::total       129159                       # number of overall (read+write) accesses (Count)
system.cpu.l2cache.demandMissRate::cpu.mmu.dtb.walker     0.017004                       # miss rate for demand accesses (Ratio)
system.cpu.l2cache.demandMissRate::cpu.mmu.itb.walker     0.400000                       # miss rate for demand accesses (Ratio)
system.cpu.l2cache.demandMissRate::cpu.inst     0.951299                       # miss rate for demand accesses (Ratio)
system.cpu.l2cache.demandMissRate::cpu.data     0.926712                       # miss rate for demand accesses (Ratio)
system.cpu.l2cache.demandMissRate::total     0.883237                       # miss rate for demand accesses (Ratio)
system.cpu.l2cache.overallMissRate::cpu.mmu.dtb.walker     0.017004                       # miss rate for overall accesses (Ratio)
system.cpu.l2cache.overallMissRate::cpu.mmu.itb.walker     0.400000                       # miss rate for overall accesses (Ratio)
system.cpu.l2cache.overallMissRate::cpu.inst     0.951299                       # miss rate for overall accesses (Ratio)
system.cpu.l2cache.overallMissRate::cpu.data     0.926712                       # miss rate for overall accesses (Ratio)
system.cpu.l2cache.overallMissRate::total     0.883237                       # miss rate for overall accesses (Ratio)
system.cpu.l2cache.demandAvgMissLatency::cpu.mmu.dtb.walker 14709.085714                       # average overall miss latency ((Cycle/Count))
system.cpu.l2cache.demandAvgMissLatency::cpu.mmu.itb.walker 57858.750000                       # average overall miss latency ((Cycle/Count))
system.cpu.l2cache.demandAvgMissLatency::cpu.inst 69885.675768                       # average overall miss latency ((Cycle/Count))
system.cpu.l2cache.demandAvgMissLatency::cpu.data 72509.818458                       # average overall miss latency ((Cycle/Count))
system.cpu.l2cache.demandAvgMissLatency::total 72449.363725                       # average overall miss latency ((Cycle/Count))
system.cpu.l2cache.overallAvgMissLatency::cpu.mmu.dtb.walker 14709.085714                       # average overall miss latency ((Cycle/Count))
system.cpu.l2cache.overallAvgMissLatency::cpu.mmu.itb.walker 57858.750000                       # average overall miss latency ((Cycle/Count))
system.cpu.l2cache.overallAvgMissLatency::cpu.inst 69885.675768                       # average overall miss latency ((Cycle/Count))
system.cpu.l2cache.overallAvgMissLatency::cpu.data 72509.818458                       # average overall miss latency ((Cycle/Count))
system.cpu.l2cache.overallAvgMissLatency::total 72449.363725                       # average overall miss latency ((Cycle/Count))
system.cpu.l2cache.blockedCycles::no_mshrs            0                       # number of cycles access was blocked (Cycle)
system.cpu.l2cache.blockedCycles::no_targets            0                       # number of cycles access was blocked (Cycle)
system.cpu.l2cache.blockedCauses::no_mshrs            0                       # number of times access was blocked (Count)
system.cpu.l2cache.blockedCauses::no_targets            0                       # number of times access was blocked (Count)
system.cpu.l2cache.avgBlocked::no_mshrs           nan                       # average number of cycles each access was blocked ((Cycle/Count))
system.cpu.l2cache.avgBlocked::no_targets          nan                       # average number of cycles each access was blocked ((Cycle/Count))
system.cpu.l2cache.writebacks::writebacks       104050                       # number of writebacks (Count)
system.cpu.l2cache.writebacks::total           104050                       # number of writebacks (Count)
system.cpu.l2cache.demandMshrMisses::cpu.mmu.dtb.walker          105                       # number of demand (read+write) MSHR misses (Count)
system.cpu.l2cache.demandMshrMisses::cpu.mmu.itb.walker            4                       # number of demand (read+write) MSHR misses (Count)
system.cpu.l2cache.demandMshrMisses::cpu.inst          293                       # number of demand (read+write) MSHR misses (Count)
system.cpu.l2cache.demandMshrMisses::cpu.data       113676                       # number of demand (read+write) MSHR misses (Count)
system.cpu.l2cache.demandMshrMisses::total       114078                       # number of demand (read+write) MSHR misses (Count)
system.cpu.l2cache.overallMshrMisses::cpu.mmu.dtb.walker          105                       # number of overall MSHR misses (Count)
system.cpu.l2cache.overallMshrMisses::cpu.mmu.itb.walker            4                       # number of overall MSHR misses (Count)
[...]
system.mem_ctrls.dram.rank0.writeEnergy       2766600                       # Energy for write commands per rank (pJ) (Joule)
system.mem_ctrls.dram.rank0.refreshEnergy 52050788400.000008                       # Energy for refresh commands per rank (pJ) (Joule)
system.mem_ctrls.dram.rank0.actBackEnergy   9633957600                       # Energy for active background per rank (pJ) (Joule)
system.mem_ctrls.dram.rank0.preBackEnergy 245085677760                       # Energy for precharge background per rank (pJ) (Joule)
system.mem_ctrls.dram.rank0.actPowerDownEnergy            0                       # Energy for active power-down per rank (pJ) (Joule)
system.mem_ctrls.dram.rank0.prePowerDownEnergy            0                       # Energy for precharge power-down per rank (pJ) (Joule)
system.mem_ctrls.dram.rank0.selfRefreshEnergy            0                       # Energy for self refresh per rank (pJ) (Joule)
system.mem_ctrls.dram.rank0.totalEnergy  306779099295                       # Total energy per rank (pJ) (Joule)
system.mem_ctrls.dram.rank0.averagePower   465.260206                       # Core power per rank (mW) (Watt)
system.mem_ctrls.dram.rank0.totalIdleTime            0                       # Total Idle time Per DRAM Rank (Tick)
system.mem_ctrls.dram.rank0.pwrStateTime::IDLE 637078230094                       # Time in different power states (Tick)
system.mem_ctrls.dram.rank0.pwrStateTime::REF  22018058925                       # Time in different power states (Tick)
system.mem_ctrls.dram.rank0.pwrStateTime::SREF            0                       # Time in different power states (Tick)
system.mem_ctrls.dram.rank0.pwrStateTime::PRE_PDN            0                       # Time in different power states (Tick)
system.mem_ctrls.dram.rank0.pwrStateTime::ACT    274749911                       # Time in different power states (Tick)
system.mem_ctrls.dram.rank0.pwrStateTime::ACT_PDN            0                       # Time in different power states (Tick)
system.mem_ctrls.dram.rank1.actEnergy          735420                       # Energy for activate commands per rank (pJ) (Joule)
system.mem_ctrls.dram.rank1.preEnergy          390885                       # Energy for precharge commands per rank (pJ) (Joule)
system.mem_ctrls.dram.rank1.readEnergy        1892100                       # Energy for read commands per rank (pJ) (Joule)
system.mem_ctrls.dram.rank1.writeEnergy       1398960                       # Energy for write commands per rank (pJ) (Joule)
system.mem_ctrls.dram.rank1.refreshEnergy 52050788400.000008                       # Energy for refresh commands per rank (pJ) (Joule)
system.mem_ctrls.dram.rank1.actBackEnergy   9633544920                       # Energy for active background per rank (pJ) (Joule)
system.mem_ctrls.dram.rank1.preBackEnergy 245086025280                       # Energy for precharge background per rank (pJ) (Joule)
system.mem_ctrls.dram.rank1.actPowerDownEnergy            0                       # Energy for active power-down per rank (pJ) (Joule)
system.mem_ctrls.dram.rank1.prePowerDownEnergy            0                       # Energy for precharge power-down per rank (pJ) (Joule)
system.mem_ctrls.dram.rank1.selfRefreshEnergy            0                       # Energy for self refresh per rank (pJ) (Joule)
system.mem_ctrls.dram.rank1.totalEnergy  306774775965                       # Total energy per rank (pJ) (Joule)
system.mem_ctrls.dram.rank1.averagePower   465.253649                       # Core power per rank (mW) (Watt)
system.mem_ctrls.dram.rank1.totalIdleTime            0                       # Total Idle time Per DRAM Rank (Tick)
system.mem_ctrls.dram.rank1.pwrStateTime::IDLE 637079313322                       # Time in different power states (Tick)
system.mem_ctrls.dram.rank1.pwrStateTime::REF  22018058925                       # Time in different power states (Tick)
system.mem_ctrls.dram.rank1.pwrStateTime::SREF            0                       # Time in different power states (Tick)
system.mem_ctrls.dram.rank1.pwrStateTime::PRE_PDN            0                       # Time in different power states (Tick)
system.mem_ctrls.dram.rank1.pwrStateTime::ACT    273666683                       # Time in different power states (Tick)
system.mem_ctrls.dram.rank1.pwrStateTime::ACT_PDN            0                       # Time in different power states (Tick)
system.mem_ctrls.power_state.pwrStateResidencyTicks::UNDEFINED 659371038930                       # Cumulative time (in ticks) in various power states (Tick)
system.membus.transDist::ReadReq              1909640                       # Transaction distribution (Count)
system.membus.transDist::ReadResp             1910404                       # Transaction distribution (Count)
system.membus.transDist::WriteReq                3206                       # Transaction distribution (Count)
system.membus.transDist::WriteResp               3206                       # Transaction distribution (Count)
system.membus.transDist::WritebackDirty           799                       # Transaction distribution (Count)
system.membus.transDist::WriteClean              2002                       # Transaction distribution (Count)
system.membus.transDist::UpgradeReq                 4                       # Transaction distribution (Count)
system.membus.transDist::ReadExReq               2037                       # Transaction distribution (Count)
system.membus.transDist::ReadExResp              2037                       # Transaction distribution (Count)
system.membus.transDist::ReadSharedReq            764                       # Transaction distribution (Count)
system.membus.transDist::CleanInvalidReq         2002                       # Transaction distribution (Count)
system.membus.pktCount_system.l3.mem_side_port::system.bridge.cpu_side_port      3819686                       # Packet count per connected requestor and responder (Count)
system.membus.pktCount_system.l3.mem_side_port::system.cpu.interrupts.pio         6006                       # Packet count per connected requestor and responder (Count)
system.membus.pktCount_system.l3.mem_side_port::system.mem_ctrls.port        10409                       # Packet count per connected requestor and responder (Count)
system.membus.pktCount_system.l3.mem_side_port::total      3836101                       # Packet count per connected requestor and responder (Count)
system.membus.pktCount::total                 3836101                       # Packet count per connected requestor and responder (Count)
system.membus.pktSize_system.l3.mem_side_port::system.bridge.cpu_side_port      1909843                       # Cumulative packet size per connected requestor and responder (Byte)
system.membus.pktSize_system.l3.mem_side_port::system.cpu.interrupts.pio        12012                       # Cumulative packet size per connected requestor and responder (Byte)
system.membus.pktSize_system.l3.mem_side_port::system.mem_ctrls.port       358528                       # Cumulative packet size per connected requestor and responder (Byte)
system.membus.pktSize_system.l3.mem_side_port::total      2280383                       # Cumulative packet size per connected requestor and responder (Byte)
system.membus.pktSize::total                  2280383                       # Cumulative packet size per connected requestor and responder (Byte)
system.membus.snoops                                3                       # Total snoops (Count)
system.membus.snoopTraffic                          0                       # Total snoop traffic (Byte)
system.membus.snoopFanout::samples            1917653                       # Request fanout histogram (Count)
system.membus.snoopFanout::mean                     0                       # Request fanout histogram (Count)
system.membus.snoopFanout::stdev                    0                       # Request fanout histogram (Count)
system.membus.snoopFanout::underflows               0      0.00%      0.00% # Request fanout histogram (Count)
system.membus.snoopFanout::0                  1917653    100.00%    100.00% # Request fanout histogram (Count)
system.membus.snoopFanout::1                        0      0.00%    100.00% # Request fanout histogram (Count)
system.membus.snoopFanout::2                        0      0.00%    100.00% # Request fanout histogram (Count)
system.membus.snoopFanout::overflows                0      0.00%    100.00% # Request fanout histogram (Count)
system.membus.snoopFanout::min_value                0                       # Request fanout histogram (Count)
system.membus.snoopFanout::max_value                0                       # Request fanout histogram (Count)
system.membus.snoopFanout::total              1917653                       # Request fanout histogram (Count)
system.membus.badaddr_responder.power_state.pwrStateResidencyTicks::UNDEFINED 659371038930                       # Cumulative time (in ticks) in various power states (Tick)
system.membus.power_state.pwrStateResidencyTicks::UNDEFINED 659371038930                       # Cumulative time (in ticks) in various power states (Tick)
system.membus.reqLayer0.occupancy          2297921087                       # Layer occupancy (ticks) (Tick)
system.membus.reqLayer0.utilization               0.0                       # Layer utilization (Ratio)
system.membus.reqLayer1.occupancy             7694658                       # Layer occupancy (ticks) (Tick)
system.membus.reqLayer1.utilization               0.0                       # Layer utilization (Ratio)
system.membus.reqLayer3.occupancy            20282141                       # Layer occupancy (ticks) (Tick)
system.membus.reqLayer3.utilization               0.0                       # Layer utilization (Ratio)
system.membus.respLayer3.occupancy         3836730964                       # Layer occupancy (ticks) (Tick)
system.membus.respLayer3.utilization              0.0                       # Layer utilization (Ratio)
system.membus.snoop_filter.totRequests           5606                       # Total number of requests made to the snoop filter. (Count)
system.membus.snoop_filter.hitSingleRequests         2805                       # Number of requests hitting in the snoop filter with a single holder of the requested data. (Count)
system.membus.snoop_filter.hitMultiRequests            0                       # Number of requests hitting in the snoop filter with multiple (>1) holders of the requested data. (Count)
system.membus.snoop_filter.totSnoops                0                       # Total number of snoops made to the snoop filter. (Count)
system.membus.snoop_filter.hitSingleSnoops            0                       # Number of snoops hitting in the snoop filter with a single holder of the requested data. (Count)
system.membus.snoop_filter.hitMultiSnoops            0                       # Number of snoops hitting in the snoop filter with multiple (>1) holders of the requested data. (Count)
system.pc.bad_addr.power_state.pwrStateResidencyTicks::UNDEFINED 659371038930                       # Cumulative time (in ticks) in various power states (Tick)
system.pc.com_1.power_state.pwrStateResidencyTicks::UNDEFINED 659371038930                       # Cumulative time (in ticks) in various power states (Tick)
system.pc.default_bus.power_state.pwrStateResidencyTicks::UNDEFINED 659371038930                       # Cumulative time (in ticks) in various power states (Tick)
system.pc.empty_isa.power_state.pwrStateResidencyTicks::UNDEFINED 659371038930                       # Cumulative time (in ticks) in various power states (Tick)
system.pc.fake_com_2.power_state.pwrStateResidencyTicks::UNDEFINED 659371038930                       # Cumulative time (in ticks) in various power states (Tick)
system.pc.fake_com_3.power_state.pwrStateResidencyTicks::UNDEFINED 659371038930                       # Cumulative time (in ticks) in various power states (Tick)
system.pc.fake_com_4.power_state.pwrStateResidencyTicks::UNDEFINED 659371038930                       # Cumulative time (in ticks) in various power states (Tick)
system.pc.fake_floppy.power_state.pwrStateResidencyTicks::UNDEFINED 659371038930                       # Cumulative time (in ticks) in various power states (Tick)
system.pc.pci_host.power_state.pwrStateResidencyTicks::UNDEFINED 659371038930                       # Cumulative time (in ticks) in various power states (Tick)
system.pc.south_bridge.cmos.power_state.pwrStateResidencyTicks::UNDEFINED 659371038930                       # Cumulative time (in ticks) in various power states (Tick)
system.pc.south_bridge.dma1.power_state.pwrStateResidencyTicks::UNDEFINED 659371038930                       # Cumulative time (in ticks) in various power states (Tick)
system.pc.south_bridge.ide.disks.IdeDisk.dmaReadFullPages            0                       # Number of full page size DMA reads (not PRD). (Count)
system.pc.south_bridge.ide.disks.IdeDisk.dmaReadBytes            0                       # Number of bytes transfered via DMA reads (not PRD). (Byte)
system.pc.south_bridge.ide.disks.IdeDisk.dmaReadTxs            0                       # Number of DMA read transactions (not PRD). (Count)
system.pc.south_bridge.ide.disks.IdeDisk.dmaWriteFullPages            0                       # Number of full page size DMA writes. (Count)
system.pc.south_bridge.ide.disks.IdeDisk.dmaWriteBytes            0                       # Number of bytes transfered via DMA writes. (Byte)
system.pc.south_bridge.ide.disks.IdeDisk.dmaWriteTxs            0                       # Number of DMA write transactions. (Count)
system.pc.south_bridge.ide.power_state.pwrStateResidencyTicks::UNDEFINED 659371038930                       # Cumulative time (in ticks) in various power states (Tick)
system.pc.south_bridge.io_apic.power_state.pwrStateResidencyTicks::UNDEFINED 659371038930                       # Cumulative time (in ticks) in various power states (Tick)
system.pc.south_bridge.keyboard.power_state.pwrStateResidencyTicks::UNDEFINED 659371038930                       # Cumulative time (in ticks) in various power states (Tick)
system.pc.south_bridge.pic1.power_state.pwrStateResidencyTicks::UNDEFINED 659371038930                       # Cumulative time (in ticks) in various power states (Tick)
system.pc.south_bridge.pic2.power_state.pwrStateResidencyTicks::UNDEFINED 659371038930                       # Cumulative time (in ticks) in various power states (Tick)
system.pc.south_bridge.pit.power_state.pwrStateResidencyTicks::UNDEFINED 659371038930                       # Cumulative time (in ticks) in various power states (Tick)
system.pc.south_bridge.speaker.power_state.pwrStateResidencyTicks::UNDEFINED 659371038930                       # Cumulative time (in ticks) in various power states (Tick)
system.tol3bus.transDist::ReadReq             1909640                       # Transaction distribution (Count)
system.tol3bus.transDist::ReadResp            1910453                       # Transaction distribution (Count)
system.tol3bus.transDist::WriteReq               3206                       # Transaction distribution (Count)
system.tol3bus.transDist::WriteResp              3206                       # Transaction distribution (Count)
system.tol3bus.transDist::WritebackDirty         1666                       # Transaction distribution (Count)
system.tol3bus.transDist::WriteClean             2002                       # Transaction distribution (Count)
system.tol3bus.transDist::UpgradeReq                5                       # Transaction distribution (Count)
system.tol3bus.transDist::UpgradeResp               2                       # Transaction distribution (Count)
system.tol3bus.transDist::ReadExReq              2043                       # Transaction distribution (Count)
system.tol3bus.transDist::ReadExResp             2043                       # Transaction distribution (Count)
system.tol3bus.transDist::ReadSharedReq           813                       # Transaction distribution (Count)
system.tol3bus.transDist::CleanInvalidReq         2002                       # Transaction distribution (Count)
system.tol3bus.transDist::CleanInvalidResp         2002                       # Transaction distribution (Count)
system.tol3bus.pktCount_system.cpu.l2cache.mem_side_port::system.l3.cpu_side_port      3838284                       # Packet count per connected requestor and responder (Count)
system.tol3bus.pktSize_system.cpu.l2cache.mem_side_port::system.l3.cpu_side_port      2288255                       # Cumulative packet size per connected requestor and responder (Byte)
system.tol3bus.snoops                             802                       # Total snoops (Count)
system.tol3bus.snoopTraffic                     51136                       # Total snoop traffic (Byte)
system.tol3bus.snoopFanout::samples           1918508                       # Request fanout histogram (Count)
system.tol3bus.snoopFanout::mean                    0                       # Request fanout histogram (Count)
system.tol3bus.snoopFanout::stdev                   0                       # Request fanout histogram (Count)
system.tol3bus.snoopFanout::underflows              0      0.00%      0.00% # Request fanout histogram (Count)
system.tol3bus.snoopFanout::0                 1918508    100.00%    100.00% # Request fanout histogram (Count)
system.tol3bus.snoopFanout::1                       0      0.00%    100.00% # Request fanout histogram (Count)
system.tol3bus.snoopFanout::overflows               0      0.00%    100.00% # Request fanout histogram (Count)
system.tol3bus.snoopFanout::min_value               0                       # Request fanout histogram (Count)
system.tol3bus.snoopFanout::max_value               0                       # Request fanout histogram (Count)
system.tol3bus.snoopFanout::total             1918508                       # Request fanout histogram (Count)
system.tol3bus.power_state.pwrStateResidencyTicks::UNDEFINED 659371038930                       # Cumulative time (in ticks) in various power states (Tick)
system.tol3bus.reqLayer0.occupancy          642529827                       # Layer occupancy (ticks) (Tick)
system.tol3bus.reqLayer0.utilization              0.0                       # Layer utilization (Ratio)
system.tol3bus.respLayer0.occupancy        1910408794                       # Layer occupancy (ticks) (Tick)
system.tol3bus.respLayer0.utilization             0.0                       # Layer utilization (Ratio)
system.tol3bus.snoop_filter.totRequests          5730                       # Total number of requests made to the snoop filter. (Count)
system.tol3bus.snoop_filter.hitSingleRequests         2875                       # Number of requests hitting in the snoop filter with a single holder of the requested data. (Count)
system.tol3bus.snoop_filter.hitMultiRequests            0                       # Number of requests hitting in the snoop filter with multiple (>1) holders of the requested data. (Count)
system.tol3bus.snoop_filter.totSnoops               0                       # Total number of snoops made to the snoop filter. (Count)
system.tol3bus.snoop_filter.hitSingleSnoops            0                       # Number of snoops hitting in the snoop filter with a single holder of the requested data. (Count)
system.tol3bus.snoop_filter.hitMultiSnoops            0                       # Number of snoops hitting in the snoop filter with multiple (>1) holders of the requested data. (Count)
system.voltage_domain.voltage                       1                       # Voltage in Volts (Volt)
system.workload.inst.arm                            0                       # number of arm instructions executed (Count)
system.workload.inst.quiesce                        0                       # number of quiesce instructions executed (Count)

---------- End Simulation Statistics   ----------
